Circuit: * E:\OKUL\20-21 Guz Donemi\ANALOG ELE\HMWS\2020hmws\project\Draft3.asc

Instance "m§q8": Length shorter than recommended for a level 1 MOSFET.
Instance "m§q7": Length shorter than recommended for a level 1 MOSFET.
Instance "m§q7": Width narrower than recommended for a level 1 MOSFET.
Instance "m§q6": Length shorter than recommended for a level 1 MOSFET.
Instance "m§q6": Width narrower than recommended for a level 1 MOSFET.
Instance "m§q5": Length shorter than recommended for a level 1 MOSFET.
Instance "m§q4": Length shorter than recommended for a level 1 MOSFET.
Instance "m§q3": Length shorter than recommended for a level 1 MOSFET.
Instance "m§q2": Length shorter than recommended for a level 1 MOSFET.
Instance "m§q1": Length shorter than recommended for a level 1 MOSFET.
Instance "m§q1": Width narrower than recommended for a level 1 MOSFET.
Direct Newton iteration for .op point succeeded.

Date: Thu Jan 21 15:00:25 2021
Total elapsed time: 0.099 seconds.

tnom = 27
temp = 27
method = trap
totiter = 25
traniter = 0
tranpoints = 0
accept = 0
rejected = 0
matrix size = 11
fillins = 2
solver = Normal
Matrix Compiler1:      42 opcodes
Matrix Compiler2: 1.07 KB object code size
